Pcp_File_Version=4
*** BLOCK I: ATMOSPHERIC INFORMATION  **********************************
MaxAL (MaxAL = number of atmospheric data-records)
183
lDailyVar lSinusVar lLai lBCCycles lInterc 
f f f f f
hCritS (max. allowed pressure head at the soil surface)
1e+30
 tAtm  Prec  rSoil  rRoot    hCritA  rB  hB  ht  tTop  tBot  Ampl
   91  0.00      0   0.16 1000000.0   0   0   0     3     0     3
   92  0.07      0   0.18 1000000.0   0   0   0     5     0     3
   93  0.02      0   0.13 1000000.0   0   0   0     7     0     4
   94  0.00      0   0.20 1000000.0   0   0   0     6     0     4
   95  0.00      0   0.28 1000000.0   0   0   0     5     0     4
   96  0.07      0   0.18 1000000.0   0   0   0     4     0     4
   97  0.29      0   0.08 1000000.0   0   0   0     7     0     4
   98  0.44      0   0.14 1000000.0   0   0   0     8     0     5
   99  0.20      0   0.11 1000000.0   0   0   0     9     0     5
  100  0.29      0   0.11 1000000.0   0   0   0     8     0     4
  101  0.32      0   0.11 1000000.0   0   0   0     7     0     5
  102  0.49      0   0.11 1000000.0   0   0   0     8     0     5
  103  0.01      0   0.16 1000000.0   0   0   0     8     0     5
  104  0.00      0   0.17 1000000.0   0   0   0     9     0     5
  105  0.00      0   0.22 1000000.0   0   0   0     8     0     5
  106  0.00      0   0.21 1000000.0   0   0   0    10     0     5
  107  0.00      0   0.23 1000000.0   0   0   0    13     0     4
  108  0.00      0   0.23 1000000.0   0   0   0    12     0     6
  109  0.00      0   0.24 1000000.0   0   0   0    10     0     6
  110  0.00      0   0.18 1000000.0   0   0   0     9     0     5
  111  0.00      0   0.15 1000000.0   0   0   0    12     0     4
  112  0.00      0   0.19 1000000.0   0   0   0    13     0     5
  113  0.01      0   0.15 1000000.0   0   0   0    15     0     5
  114  0.01      0   0.22 1000000.0   0   0   0    13     0     4
  115  0.00      0   0.23 1000000.0   0   0   0    12     0     4
  116  0.02      0   0.20 1000000.0   0   0   0    13     0     4
  117  0.00      0   0.17 1000000.0   0   0   0    15     0     5
  118  0.02      0   0.14 1000000.0   0   0   0    10     0     5
  119  0.26      0   0.13 1000000.0   0   0   0     8     0     5
  120  0.24      0   0.11 1000000.0   0   0   0     8     0     4
  121  0.61      0   0.08 1000000.0   0   0   0    10     0     5
  122  0.00      0   0.21 1000000.0   0   0   0    13     0     4
  123  0.19      0   0.14 1000000.0   0   0   0    15     0     4
  124  0.17      0   0.21 1000000.0   0   0   0    17     0     4
  125  0.78      0   0.07 1000000.0   0   0   0    17     0     5
  126  1.18      0   0.10 1000000.0   0   0   0    18     0     5
  127  0.68      0   0.10 1000000.0   0   0   0    18     0     5
  128  0.00      0   0.16 1000000.0   0   0   0    19     0     4
  129  0.00      0   0.26 1000000.0   0   0   0    19     0     6
  130  0.00      0   0.26 1000000.0   0   0   0    15     0     5
  131  0.00      0   0.25 1000000.0   0   0   0    15     0     5
  132  0.00      0   0.31 1000000.0   0   0   0    13     0     4
  133  0.00      0   0.35 1000000.0   0   0   0    12     0     4
  134  0.00      0   0.41 1000000.0   0   0   0    13     0     4
  135  0.00      0   0.39 1000000.0   0   0   0    14     0     5
  136  0.00      0   0.40 1000000.0   0   0   0    16     0     6
  137  0.19      0   0.17 1000000.0   0   0   0    15     0     4
  138  0.26      0   0.25 1000000.0   0   0   0    14     0     5
  139  0.01      0   0.29 1000000.0   0   0   0    13     0     5
  140  0.20      0   0.15 1000000.0   0   0   0    12     0     4
  141  0.00      0   0.16 1000000.0   0   0   0    13     0     5
  142  0.25      0   0.12 1000000.0   0   0   0    12     0     5
  143  0.20      0   0.22 1000000.0   0   0   0    14     0     4
  144  0.07      0   0.19 1000000.0   0   0   0    15     0     4
  145  0.00      0   0.27 1000000.0   0   0   0    16     0     5
  146  0.00      0   0.44 1000000.0   0   0   0    17     0     5
  147  0.29      0   0.39 1000000.0   0   0   0    16     0     6
  148  0.01      0   0.23 1000000.0   0   0   0    15     0     6
  149  0.00      0   0.31 1000000.0   0   0   0    14     0     5
  150  0.00      0   0.42 1000000.0   0   0   0    13     0     4
  151  0.00      0   0.43 1000000.0   0   0   0    12     0     5
  152  0.00      0   0.40 1000000.0   0   0   0    15     0     5
  153  0.00      0   0.46 1000000.0   0   0   0    16     0     5
  154  0.00      0   0.42 1000000.0   0   0   0    17     0     5
  155  0.00      0   0.28 1000000.0   0   0   0    18     0     5
  156  0.00      0   0.44 1000000.0   0   0   0    12     0     5
  157  1.07      0   0.29 1000000.0   0   0   0    15     0     5
  158  0.01      0   0.36 1000000.0   0   0   0    16     0     5
  159  0.00      0   0.36 1000000.0   0   0   0    19     0     5
  160  0.00      0   0.30 1000000.0   0   0   0    20     0     5
  161  0.00      0   0.34 1000000.0   0   0   0    14     0     5
  162  0.22      0   0.18 1000000.0   0   0   0    13     0     6
  163  0.50      0   0.26 1000000.0   0   0   0    12     0     6
  164  0.46      0   0.12 1000000.0   0   0   0    15     0     5
  165  0.01      0   0.25 1000000.0   0   0   0    16     0     5
  166  0.00      0   0.20 1000000.0   0   0   0    17     0     4
  167  0.80      0   0.08 1000000.0   0   0   0    18     0     4
  168  0.00      0   0.23 1000000.0   0   0   0    16     0     7
  169  0.19      0   0.15 1000000.0   0   0   0    18     0     8
  170  0.78      0   0.10 1000000.0   0   0   0    20     0     8
  171  0.01      0   0.26 1000000.0   0   0   0    15     0     5
  172  0.00      0   0.20 1000000.0   0   0   0    16     0     5
  173  1.56      0   0.20 1000000.0   0   0   0    17     0     5
  174  0.18      0   0.31 1000000.0   0   0   0    18     0     6
  175  0.23      0   0.16 1000000.0   0   0   0    19     0     6
  176  0.02      0   0.30 1000000.0   0   0   0    20     0     7
  177  0.65      0   0.37 1000000.0   0   0   0    21     0     7
  178  0.12      0   0.21 1000000.0   0   0   0    22     0     8
  179  0.82      0   0.20 1000000.0   0   0   0    20     0     8
  180  0.62      0   0.17 1000000.0   0   0   0    21     0     9
  181  0.01      0   0.29 1000000.0   0   0   0    20     0     5
  182  0.04      0   0.24 1000000.0   0   0   0    20     0     6
  183  0.01      0   0.37 1000000.0   0   0   0    20     0     6
  184  0.44      0   0.11 1000000.0   0   0   0    21     0     7
  185  0.02      0   0.26 1000000.0   0   0   0    23     0     7
  186  0.05      0   0.32 1000000.0   0   0   0    25     0     7
  187  0.01      0   0.21 1000000.0   0   0   0    26     0     5
  188  0.00      0   0.34 1000000.0   0   0   0    22     0     6
  189  0.00      0   0.41 1000000.0   0   0   0    21     0     6
  190  0.00      0   0.51 1000000.0   0   0   0    20     0     4
  191  0.00      0   0.30 1000000.0   0   0   0    22     0     5
  192  0.00      0   0.37 1000000.0   0   0   0    23     0     4
  193  0.01      0   0.46 1000000.0   0   0   0    24     0     6
  194  0.00      0   0.47 1000000.0   0   0   0    25     0     2
  195  0.00      0   0.48 1000000.0   0   0   0    21     0     3
  196  0.24      0   0.36 1000000.0   0   0   0    20     0     1
  197  0.01      0   0.32 1000000.0   0   0   0    19     0     5
  198  0.00      0   0.38 1000000.0   0   0   0    18     0     6
  199  0.00      0   0.43 1000000.0   0   0   0    17     0     4
  200  0.00      0   0.30 1000000.0   0   0   0    20     0     5
  201  0.00      0   0.35 1000000.0   0   0   0    23     0     5
  202  0.00      0   0.34 1000000.0   0   0   0    22     0     5
  203  0.00      0   0.26 1000000.0   0   0   0    25     0     4
  204  0.00      0   0.29 1000000.0   0   0   0    26     0     4
  205  0.00      0   0.24 1000000.0   0   0   0    21     0     6
  206  0.00      0   0.25 1000000.0   0   0   0    20     0     6
  207  0.01      0   0.21 1000000.0   0   0   0    19     0     3
  208  0.07      0   0.24 1000000.0   0   0   0    18     0     3
  209  0.05      0   0.33 1000000.0   0   0   0    17     0     5
  210  0.00      0   0.48 1000000.0   0   0   0    16     0     5
  211  0.00      0   0.56 1000000.0   0   0   0    17     0     5
  212  0.00      0   0.65 1000000.0   0   0   0    19     0     5
  213  0.00      0   0.22 1000000.0   0   0   0    20     0     4
  214  0.00      0   0.58 1000000.0   0   0   0    18     0     4
  215  0.00      0   0.59 1000000.0   0   0   0    20     0     6
  216  0.01      0   0.38 1000000.0   0   0   0    22     0     6
  217  0.52      0   0.05 1000000.0   0   0   0    23     0     2
  218  0.00      0   0.32 1000000.0   0   0   0    21     0     2
  219  0.06      0   0.16 1000000.0   0   0   0    25     0     5
  220  0.00      0   0.21 1000000.0   0   0   0    21     0     4
  221  0.20      0   0.09 1000000.0   0   0   0    20     0     5
  222  0.10      0   0.32 1000000.0   0   0   0    16     0     4
  223  0.00      0   0.32 1000000.0   0   0   0    18     0     4
  224  0.00      0   0.36 1000000.0   0   0   0    15     0     6
  225  0.02      0   0.26 1000000.0   0   0   0    19     0     5
  226  0.31      0   0.27 1000000.0   0   0   0    20     0     4
  227  0.95      0   0.11 1000000.0   0   0   0    22     0     6
  228  0.00      0   0.27 1000000.0   0   0   0    21     0     5
  229  0.97      0   0.22 1000000.0   0   0   0    23     0     4
  230  0.78      0   0.24 1000000.0   0   0   0    24     0     3
  231  0.00      0   0.30 1000000.0   0   0   0    20     0     5
  232  0.26      0   0.33 1000000.0   0   0   0    22     0     5
  233  0.08      0   0.20 1000000.0   0   0   0    21     0     4
  234  0.06      0   0.15 1000000.0   0   0   0    23     0     4
  235  0.08      0   0.14 1000000.0   0   0   0    24     0     5
  236  0.19      0   0.21 1000000.0   0   0   0    21     0     4
  237  0.07      0   0.20 1000000.0   0   0   0    19     0     5
  238  0.53      0   0.06 1000000.0   0   0   0    18     0     4
  239  0.20      0   0.18 1000000.0   0   0   0    16     0     5
  240  0.08      0   0.13 1000000.0   0   0   0    15     0     3
  241  0.00      0   0.23 1000000.0   0   0   0    20     0     5
  242  0.00      0   0.30 1000000.0   0   0   0    18     0     4
  243  0.05      0   0.13 1000000.0   0   0   0    16     0     3
  244  0.11      0   0.15 1000000.0   0   0   0    15     0     4
  245  0.16      0   0.23 1000000.0   0   0   0    15     0     3
  246  0.00      0   0.25 1000000.0   0   0   0    14     0     4
  247  0.00      0   0.31 1000000.0   0   0   0    13     0     3
  248  0.02      0   0.18 1000000.0   0   0   0    15     0     4
  249  0.04      0   0.08 1000000.0   0   0   0    16     0     3
  250  0.00      0   0.12 1000000.0   0   0   0    18     0     4
  251  0.00      0   0.20 1000000.0   0   0   0    15     0     4
  252  0.00      0   0.20 1000000.0   0   0   0    16     0     3
  253  0.00      0   0.22 1000000.0   0   0   0    14     0     3
  254  0.00      0   0.18 1000000.0   0   0   0    15     0     4
  255  0.00      0   0.14 1000000.0   0   0   0    13     0     3
  256  0.00      0   0.13 1000000.0   0   0   0    12     0     4
  257  0.00      0   0.14 1000000.0   0   0   0    15     0     4
  258  0.00      0   0.20 1000000.0   0   0   0    14     0     4
  259  0.00      0   0.14 1000000.0   0   0   0    16     0     3
  260  0.00      0   0.19 1000000.0   0   0   0    15     0     3
  261  0.00      0   0.14 1000000.0   0   0   0    15     0     3
  262  0.00      0   0.20 1000000.0   0   0   0    13     0     3
  263  0.35      0   0.23 1000000.0   0   0   0    12     0     3
  264  0.52      0   0.16 1000000.0   0   0   0    14     0     3
  265  0.00      0   0.21 1000000.0   0   0   0    15     0     4
  266  0.00      0   0.19 1000000.0   0   0   0    12     0     4
  267  0.00      0   0.18 1000000.0   0   0   0    10     0     3
  268  0.00      0   0.18 1000000.0   0   0   0    10     0     4
  269  0.53      0   0.09 1000000.0   0   0   0     9     0     3
  270  0.07      0   0.23 1000000.0   0   0   0     8     0     3
  271  0.00      0   0.17 1000000.0   0   0   0     7     0     3
  272  0.00      0   0.22 1000000.0   0   0   0     6     0     3
  273  1.04      0   0.00 1000000.0   0   0   0     5     0     3
end*** END OF INPUT FILE ATMOSPH.IN **********************************
